<routes>
            <vType accel="1.0" decel="4.5" id="standard_car" length="5.0" minGap="2.5" maxSpeed="25" sigma="0.5" />

            <route id="W_E" edges="W2TL1 TL12TL2 TL22TL3 TL32E"/>
            <route id="E_W" edges="E2TL3 TL32TL2 TL22TL1 TL12W"/>
            <route id="N1_S1" edges="N12TL1 TL12S1"/>
            <route id="S1_N1" edges="S12TL1 TL12N1"/>
            <route id="N2_S2" edges="N22TL2 TL22S2"/>
            <route id="S2_N2" edges="S22TL2 TL22N2"/>
            <route id="N3_S3" edges="N32TL3 TL32S3"/>
            <route id="S3_N3" edges="S32TL3 TL32N3"/>

            <route id="W_N1" edges="W2TL1 TL12N1"/>
            <route id="W_S1" edges="W2TL1 TL12S1"/>
            <route id="E_N3" edges="E2TL3 TL32N3"/>
            <route id="E_S3" edges="E2TL3 TL32S3"/>
            <route id="N1_E" edges="N12TL1 TL12TL2 TL22TL3 TL32E"/>
            <route id="S1_E" edges="S12TL1 TL12TL2 TL22TL3 TL32E"/>
            <route id="N3_W" edges="N32TL3 TL32TL2 TL22TL1 TL12W"/>
            <route id="S3_W" edges="S32TL3 TL32TL2 TL22TL1 TL12W"/>
    <vehicle id="S1_N1_0" type="standard_car" route="S1_N1" depart="66.0" departLane="random" departSpeed="10" />
    <vehicle id="E_W_1" type="standard_car" route="E_W" depart="78.0" departLane="random" departSpeed="10" />
    <vehicle id="N2_S2_2" type="standard_car" route="N2_S2" depart="123.0" departLane="random" departSpeed="10" />
    <vehicle id="N2_S2_3" type="standard_car" route="N2_S2" depart="124.0" departLane="random" departSpeed="10" />
    <vehicle id="S2_N2_4" type="standard_car" route="S2_N2" depart="132.0" departLane="random" departSpeed="10" />
    <vehicle id="S2_N2_5" type="standard_car" route="S2_N2" depart="142.0" departLane="random" departSpeed="10" />
    <vehicle id="E_N3_6" type="standard_car" route="E_N3" depart="145.0" departLane="random" departSpeed="10" />
    <vehicle id="S3_N3_7" type="standard_car" route="S3_N3" depart="146.0" departLane="random" departSpeed="10" />
    <vehicle id="N3_S3_8" type="standard_car" route="N3_S3" depart="185.0" departLane="random" departSpeed="10" />
    <vehicle id="S1_N1_9" type="standard_car" route="S1_N1" depart="186.0" departLane="random" departSpeed="10" />
    <vehicle id="N3_S3_10" type="standard_car" route="N3_S3" depart="188.0" departLane="random" departSpeed="10" />
    <vehicle id="E_S3_11" type="standard_car" route="E_S3" depart="189.0" departLane="random" departSpeed="10" />
    <vehicle id="N3_S3_12" type="standard_car" route="N3_S3" depart="189.0" departLane="random" departSpeed="10" />
    <vehicle id="N1_S1_13" type="standard_car" route="N1_S1" depart="202.0" departLane="random" departSpeed="10" />
    <vehicle id="N1_S1_14" type="standard_car" route="N1_S1" depart="212.0" departLane="random" departSpeed="10" />
    <vehicle id="E_W_15" type="standard_car" route="E_W" depart="212.0" departLane="random" departSpeed="10" />
    <vehicle id="S2_N2_16" type="standard_car" route="S2_N2" depart="222.0" departLane="random" departSpeed="10" />
    <vehicle id="N1_E_17" type="standard_car" route="N1_E" depart="243.0" departLane="random" departSpeed="10" />
    <vehicle id="N1_E_18" type="standard_car" route="N1_E" depart="243.0" departLane="random" departSpeed="10" />
    <vehicle id="E_W_19" type="standard_car" route="E_W" depart="247.0" departLane="random" departSpeed="10" />
    <vehicle id="N3_S3_20" type="standard_car" route="N3_S3" depart="250.0" departLane="random" departSpeed="10" />
    <vehicle id="W_E_21" type="standard_car" route="W_E" depart="267.0" departLane="random" departSpeed="10" />
    <vehicle id="E_W_22" type="standard_car" route="E_W" depart="273.0" departLane="random" departSpeed="10" />
    <vehicle id="N1_S1_23" type="standard_car" route="N1_S1" depart="277.0" departLane="random" departSpeed="10" />
    <vehicle id="N1_S1_24" type="standard_car" route="N1_S1" depart="289.0" departLane="random" departSpeed="10" />
    <vehicle id="N1_S1_25" type="standard_car" route="N1_S1" depart="290.0" departLane="random" departSpeed="10" />
    <vehicle id="N3_S3_26" type="standard_car" route="N3_S3" depart="292.0" departLane="random" departSpeed="10" />
    <vehicle id="N2_S2_27" type="standard_car" route="N2_S2" depart="294.0" departLane="random" departSpeed="10" />
    <vehicle id="E_W_28" type="standard_car" route="E_W" depart="303.0" departLane="random" departSpeed="10" />
    <vehicle id="E_W_29" type="standard_car" route="E_W" depart="308.0" departLane="random" departSpeed="10" />
    <vehicle id="E_W_30" type="standard_car" route="E_W" depart="313.0" departLane="random" departSpeed="10" />
    <vehicle id="E_W_31" type="standard_car" route="E_W" depart="318.0" departLane="random" departSpeed="10" />
    <vehicle id="N2_S2_32" type="standard_car" route="N2_S2" depart="322.0" departLane="random" departSpeed="10" />
    <vehicle id="W_E_33" type="standard_car" route="W_E" depart="322.0" departLane="random" departSpeed="10" />
    <vehicle id="N1_S1_34" type="standard_car" route="N1_S1" depart="339.0" departLane="random" departSpeed="10" />
    <vehicle id="N1_S1_35" type="standard_car" route="N1_S1" depart="342.0" departLane="random" departSpeed="10" />
    <vehicle id="W_E_36" type="standard_car" route="W_E" depart="344.0" departLane="random" departSpeed="10" />
    <vehicle id="S3_N3_37" type="standard_car" route="S3_N3" depart="344.0" departLane="random" departSpeed="10" />
    <vehicle id="S1_N1_38" type="standard_car" route="S1_N1" depart="352.0" departLane="random" departSpeed="10" />
    <vehicle id="N1_S1_39" type="standard_car" route="N1_S1" depart="353.0" departLane="random" departSpeed="10" />
    <vehicle id="W_E_40" type="standard_car" route="W_E" depart="356.0" departLane="random" departSpeed="10" />
    <vehicle id="S2_N2_41" type="standard_car" route="S2_N2" depart="364.0" departLane="random" departSpeed="10" />
    <vehicle id="N1_S1_42" type="standard_car" route="N1_S1" depart="364.0" departLane="random" departSpeed="10" />
    <vehicle id="N3_S3_43" type="standard_car" route="N3_S3" depart="367.0" departLane="random" departSpeed="10" />
    <vehicle id="S1_N1_44" type="standard_car" route="S1_N1" depart="370.0" departLane="random" departSpeed="10" />
    <vehicle id="E_S3_45" type="standard_car" route="E_S3" depart="373.0" departLane="random" departSpeed="10" />
    <vehicle id="S3_N3_46" type="standard_car" route="S3_N3" depart="381.0" departLane="random" departSpeed="10" />
    <vehicle id="W_E_47" type="standard_car" route="W_E" depart="385.0" departLane="random" departSpeed="10" />
    <vehicle id="S3_N3_48" type="standard_car" route="S3_N3" depart="387.0" departLane="random" departSpeed="10" />
    <vehicle id="E_S3_49" type="standard_car" route="E_S3" depart="393.0" departLane="random" departSpeed="10" />
    <vehicle id="S2_N2_50" type="standard_car" route="S2_N2" depart="400.0" departLane="random" departSpeed="10" />
    <vehicle id="W_E_51" type="standard_car" route="W_E" depart="402.0" departLane="random" departSpeed="10" />
    <vehicle id="S2_N2_52" type="standard_car" route="S2_N2" depart="402.0" departLane="random" departSpeed="10" />
    <vehicle id="E_W_53" type="standard_car" route="E_W" depart="404.0" departLane="random" departSpeed="10" />
    <vehicle id="E_W_54" type="standard_car" route="E_W" depart="406.0" departLane="random" departSpeed="10" />
    <vehicle id="W_S1_55" type="standard_car" route="W_S1" depart="411.0" departLane="random" departSpeed="10" />
    <vehicle id="N2_S2_56" type="standard_car" route="N2_S2" depart="413.0" departLane="random" departSpeed="10" />
    <vehicle id="S3_N3_57" type="standard_car" route="S3_N3" depart="417.0" departLane="random" departSpeed="10" />
    <vehicle id="N2_S2_58" type="standard_car" route="N2_S2" depart="420.0" departLane="random" departSpeed="10" />
    <vehicle id="S2_N2_59" type="standard_car" route="S2_N2" depart="420.0" departLane="random" departSpeed="10" />
    <vehicle id="S1_N1_60" type="standard_car" route="S1_N1" depart="420.0" departLane="random" departSpeed="10" />
    <vehicle id="S3_N3_61" type="standard_car" route="S3_N3" depart="424.0" departLane="random" departSpeed="10" />
    <vehicle id="S2_N2_62" type="standard_car" route="S2_N2" depart="433.0" departLane="random" departSpeed="10" />
    <vehicle id="S3_N3_63" type="standard_car" route="S3_N3" depart="433.0" departLane="random" departSpeed="10" />
    <vehicle id="S3_N3_64" type="standard_car" route="S3_N3" depart="437.0" departLane="random" departSpeed="10" />
    <vehicle id="W_N1_65" type="standard_car" route="W_N1" depart="444.0" departLane="random" departSpeed="10" />
    <vehicle id="N1_E_66" type="standard_car" route="N1_E" depart="444.0" departLane="random" departSpeed="10" />
    <vehicle id="S3_W_67" type="standard_car" route="S3_W" depart="446.0" departLane="random" departSpeed="10" />
    <vehicle id="W_E_68" type="standard_car" route="W_E" depart="449.0" departLane="random" departSpeed="10" />
    <vehicle id="S3_N3_69" type="standard_car" route="S3_N3" depart="456.0" departLane="random" departSpeed="10" />
    <vehicle id="N3_W_70" type="standard_car" route="N3_W" depart="457.0" departLane="random" departSpeed="10" />
    <vehicle id="W_N1_71" type="standard_car" route="W_N1" depart="461.0" departLane="random" departSpeed="10" />
    <vehicle id="N3_S3_72" type="standard_car" route="N3_S3" depart="461.0" departLane="random" departSpeed="10" />
    <vehicle id="N3_W_73" type="standard_car" route="N3_W" depart="464.0" departLane="random" departSpeed="10" />
    <vehicle id="N1_S1_74" type="standard_car" route="N1_S1" depart="471.0" departLane="random" departSpeed="10" />
    <vehicle id="S3_N3_75" type="standard_car" route="S3_N3" depart="471.0" departLane="random" departSpeed="10" />
    <vehicle id="W_E_76" type="standard_car" route="W_E" depart="472.0" departLane="random" departSpeed="10" />
    <vehicle id="E_W_77" type="standard_car" route="E_W" depart="473.0" departLane="random" departSpeed="10" />
    <vehicle id="S1_N1_78" type="standard_car" route="S1_N1" depart="483.0" departLane="random" departSpeed="10" />
    <vehicle id="S2_N2_79" type="standard_car" route="S2_N2" depart="485.0" departLane="random" departSpeed="10" />
    <vehicle id="W_S1_80" type="standard_car" route="W_S1" depart="490.0" departLane="random" departSpeed="10" />
    <vehicle id="E_W_81" type="standard_car" route="E_W" depart="496.0" departLane="random" departSpeed="10" />
    <vehicle id="W_N1_82" type="standard_car" route="W_N1" depart="499.0" departLane="random" departSpeed="10" />
    <vehicle id="W_E_83" type="standard_car" route="W_E" depart="502.0" departLane="random" departSpeed="10" />
    <vehicle id="N1_E_84" type="standard_car" route="N1_E" depart="504.0" departLane="random" departSpeed="10" />
    <vehicle id="S3_N3_85" type="standard_car" route="S3_N3" depart="504.0" departLane="random" departSpeed="10" />
    <vehicle id="E_W_86" type="standard_car" route="E_W" depart="505.0" departLane="random" departSpeed="10" />
    <vehicle id="N3_W_87" type="standard_car" route="N3_W" depart="506.0" departLane="random" departSpeed="10" />
    <vehicle id="S2_N2_88" type="standard_car" route="S2_N2" depart="507.0" departLane="random" departSpeed="10" />
    <vehicle id="N2_S2_89" type="standard_car" route="N2_S2" depart="508.0" departLane="random" departSpeed="10" />
    <vehicle id="S2_N2_90" type="standard_car" route="S2_N2" depart="509.0" departLane="random" departSpeed="10" />
    <vehicle id="E_S3_91" type="standard_car" route="E_S3" depart="515.0" departLane="random" departSpeed="10" />
    <vehicle id="N2_S2_92" type="standard_car" route="N2_S2" depart="521.0" departLane="random" departSpeed="10" />
    <vehicle id="N3_S3_93" type="standard_car" route="N3_S3" depart="523.0" departLane="random" departSpeed="10" />
    <vehicle id="W_N1_94" type="standard_car" route="W_N1" depart="523.0" departLane="random" departSpeed="10" />
    <vehicle id="N1_S1_95" type="standard_car" route="N1_S1" depart="523.0" departLane="random" departSpeed="10" />
    <vehicle id="E_S3_96" type="standard_car" route="E_S3" depart="527.0" departLane="random" departSpeed="10" />
    <vehicle id="S3_N3_97" type="standard_car" route="S3_N3" depart="527.0" departLane="random" departSpeed="10" />
    <vehicle id="W_E_98" type="standard_car" route="W_E" depart="532.0" departLane="random" departSpeed="10" />
    <vehicle id="E_W_99" type="standard_car" route="E_W" depart="536.0" departLane="random" departSpeed="10" />
    <vehicle id="N2_S2_100" type="standard_car" route="N2_S2" depart="540.0" departLane="random" departSpeed="10" />
    <vehicle id="W_E_101" type="standard_car" route="W_E" depart="541.0" departLane="random" departSpeed="10" />
    <vehicle id="S1_N1_102" type="standard_car" route="S1_N1" depart="544.0" departLane="random" departSpeed="10" />
    <vehicle id="S3_W_103" type="standard_car" route="S3_W" depart="548.0" departLane="random" departSpeed="10" />
    <vehicle id="W_E_104" type="standard_car" route="W_E" depart="551.0" departLane="random" departSpeed="10" />
    <vehicle id="S3_N3_105" type="standard_car" route="S3_N3" depart="559.0" departLane="random" departSpeed="10" />
    <vehicle id="E_W_106" type="standard_car" route="E_W" depart="561.0" departLane="random" departSpeed="10" />
    <vehicle id="E_W_107" type="standard_car" route="E_W" depart="561.0" departLane="random" departSpeed="10" />
    <vehicle id="N1_S1_108" type="standard_car" route="N1_S1" depart="562.0" departLane="random" departSpeed="10" />
    <vehicle id="N3_S3_109" type="standard_car" route="N3_S3" depart="562.0" departLane="random" departSpeed="10" />
    <vehicle id="W_E_110" type="standard_car" route="W_E" depart="565.0" departLane="random" departSpeed="10" />
    <vehicle id="E_W_111" type="standard_car" route="E_W" depart="567.0" departLane="random" departSpeed="10" />
    <vehicle id="N3_S3_112" type="standard_car" route="N3_S3" depart="568.0" departLane="random" departSpeed="10" />
    <vehicle id="S1_N1_113" type="standard_car" route="S1_N1" depart="570.0" departLane="random" departSpeed="10" />
    <vehicle id="N3_S3_114" type="standard_car" route="N3_S3" depart="571.0" departLane="random" departSpeed="10" />
    <vehicle id="W_N1_115" type="standard_car" route="W_N1" depart="577.0" departLane="random" departSpeed="10" />
    <vehicle id="S3_N3_116" type="standard_car" route="S3_N3" depart="584.0" departLane="random" departSpeed="10" />
    <vehicle id="E_W_117" type="standard_car" route="E_W" depart="584.0" departLane="random" departSpeed="10" />
    <vehicle id="E_W_118" type="standard_car" route="E_W" depart="590.0" departLane="random" departSpeed="10" />
    <vehicle id="S1_N1_119" type="standard_car" route="S1_N1" depart="592.0" departLane="random" departSpeed="10" />
    <vehicle id="S1_N1_120" type="standard_car" route="S1_N1" depart="593.0" departLane="random" departSpeed="10" />
    <vehicle id="S2_N2_121" type="standard_car" route="S2_N2" depart="593.0" departLane="random" departSpeed="10" />
    <vehicle id="N3_W_122" type="standard_car" route="N3_W" depart="594.0" departLane="random" departSpeed="10" />
    <vehicle id="S1_E_123" type="standard_car" route="S1_E" depart="594.0" departLane="random" departSpeed="10" />
    <vehicle id="S2_N2_124" type="standard_car" route="S2_N2" depart="596.0" departLane="random" departSpeed="10" />
    <vehicle id="N1_E_125" type="standard_car" route="N1_E" depart="596.0" departLane="random" departSpeed="10" />
    <vehicle id="N1_S1_126" type="standard_car" route="N1_S1" depart="599.0" departLane="random" departSpeed="10" />
    <vehicle id="S3_N3_127" type="standard_car" route="S3_N3" depart="599.0" departLane="random" departSpeed="10" />
    <vehicle id="E_S3_128" type="standard_car" route="E_S3" depart="606.0" departLane="random" departSpeed="10" />
    <vehicle id="E_W_129" type="standard_car" route="E_W" depart="608.0" departLane="random" departSpeed="10" />
    <vehicle id="W_E_130" type="standard_car" route="W_E" depart="609.0" departLane="random" departSpeed="10" />
    <vehicle id="N3_S3_131" type="standard_car" route="N3_S3" depart="612.0" departLane="random" departSpeed="10" />
    <vehicle id="N2_S2_132" type="standard_car" route="N2_S2" depart="614.0" departLane="random" departSpeed="10" />
    <vehicle id="N1_E_133" type="standard_car" route="N1_E" depart="614.0" departLane="random" departSpeed="10" />
    <vehicle id="N2_S2_134" type="standard_car" route="N2_S2" depart="618.0" departLane="random" departSpeed="10" />
    <vehicle id="E_S3_135" type="standard_car" route="E_S3" depart="623.0" departLane="random" departSpeed="10" />
    <vehicle id="W_E_136" type="standard_car" route="W_E" depart="625.0" departLane="random" departSpeed="10" />
    <vehicle id="S2_N2_137" type="standard_car" route="S2_N2" depart="630.0" departLane="random" departSpeed="10" />
    <vehicle id="S1_N1_138" type="standard_car" route="S1_N1" depart="632.0" departLane="random" departSpeed="10" />
    <vehicle id="N2_S2_139" type="standard_car" route="N2_S2" depart="634.0" departLane="random" departSpeed="10" />
    <vehicle id="W_E_140" type="standard_car" route="W_E" depart="635.0" departLane="random" departSpeed="10" />
    <vehicle id="N2_S2_141" type="standard_car" route="N2_S2" depart="636.0" departLane="random" departSpeed="10" />
    <vehicle id="W_N1_142" type="standard_car" route="W_N1" depart="640.0" departLane="random" departSpeed="10" />
    <vehicle id="E_N3_143" type="standard_car" route="E_N3" depart="643.0" departLane="random" departSpeed="10" />
    <vehicle id="N3_S3_144" type="standard_car" route="N3_S3" depart="645.0" departLane="random" departSpeed="10" />
    <vehicle id="S1_N1_145" type="standard_car" route="S1_N1" depart="645.0" departLane="random" departSpeed="10" />
    <vehicle id="S1_N1_146" type="standard_car" route="S1_N1" depart="646.0" departLane="random" departSpeed="10" />
    <vehicle id="E_W_147" type="standard_car" route="E_W" depart="653.0" departLane="random" departSpeed="10" />
    <vehicle id="S3_N3_148" type="standard_car" route="S3_N3" depart="654.0" departLane="random" departSpeed="10" />
    <vehicle id="W_S1_149" type="standard_car" route="W_S1" depart="654.0" departLane="random" departSpeed="10" />
    <vehicle id="W_N1_150" type="standard_car" route="W_N1" depart="663.0" departLane="random" departSpeed="10" />
    <vehicle id="N1_E_151" type="standard_car" route="N1_E" depart="663.0" departLane="random" departSpeed="10" />
    <vehicle id="E_W_152" type="standard_car" route="E_W" depart="664.0" departLane="random" departSpeed="10" />
    <vehicle id="W_S1_153" type="standard_car" route="W_S1" depart="664.0" departLane="random" departSpeed="10" />
    <vehicle id="N3_W_154" type="standard_car" route="N3_W" depart="669.0" departLane="random" departSpeed="10" />
    <vehicle id="S1_N1_155" type="standard_car" route="S1_N1" depart="670.0" departLane="random" departSpeed="10" />
    <vehicle id="E_N3_156" type="standard_car" route="E_N3" depart="673.0" departLane="random" departSpeed="10" />
    <vehicle id="N3_W_157" type="standard_car" route="N3_W" depart="683.0" departLane="random" departSpeed="10" />
    <vehicle id="S3_N3_158" type="standard_car" route="S3_N3" depart="685.0" departLane="random" departSpeed="10" />
    <vehicle id="N2_S2_159" type="standard_car" route="N2_S2" depart="685.0" departLane="random" departSpeed="10" />
    <vehicle id="W_E_160" type="standard_car" route="W_E" depart="686.0" departLane="random" departSpeed="10" />
    <vehicle id="E_N3_161" type="standard_car" route="E_N3" depart="686.0" departLane="random" departSpeed="10" />
    <vehicle id="N1_S1_162" type="standard_car" route="N1_S1" depart="690.0" departLane="random" departSpeed="10" />
    <vehicle id="N2_S2_163" type="standard_car" route="N2_S2" depart="693.0" departLane="random" departSpeed="10" />
    <vehicle id="S1_E_164" type="standard_car" route="S1_E" depart="694.0" departLane="random" departSpeed="10" />
    <vehicle id="S1_N1_165" type="standard_car" route="S1_N1" depart="697.0" departLane="random" departSpeed="10" />
    <vehicle id="S2_N2_166" type="standard_car" route="S2_N2" depart="698.0" departLane="random" departSpeed="10" />
    <vehicle id="W_N1_167" type="standard_car" route="W_N1" depart="699.0" departLane="random" departSpeed="10" />
    <vehicle id="N1_S1_168" type="standard_car" route="N1_S1" depart="700.0" departLane="random" departSpeed="10" />
    <vehicle id="E_N3_169" type="standard_car" route="E_N3" depart="703.0" departLane="random" departSpeed="10" />
    <vehicle id="W_N1_170" type="standard_car" route="W_N1" depart="704.0" departLane="random" departSpeed="10" />
    <vehicle id="N2_S2_171" type="standard_car" route="N2_S2" depart="715.0" departLane="random" departSpeed="10" />
    <vehicle id="W_N1_172" type="standard_car" route="W_N1" depart="718.0" departLane="random" departSpeed="10" />
    <vehicle id="S2_N2_173" type="standard_car" route="S2_N2" depart="722.0" departLane="random" departSpeed="10" />
    <vehicle id="N3_S3_174" type="standard_car" route="N3_S3" depart="723.0" departLane="random" departSpeed="10" />
    <vehicle id="W_N1_175" type="standard_car" route="W_N1" depart="723.0" departLane="random" departSpeed="10" />
    <vehicle id="E_W_176" type="standard_car" route="E_W" depart="723.0" departLane="random" departSpeed="10" />
    <vehicle id="S1_E_177" type="standard_car" route="S1_E" depart="726.0" departLane="random" departSpeed="10" />
    <vehicle id="S2_N2_178" type="standard_car" route="S2_N2" depart="728.0" departLane="random" departSpeed="10" />
    <vehicle id="W_E_179" type="standard_car" route="W_E" depart="731.0" departLane="random" departSpeed="10" />
    <vehicle id="S2_N2_180" type="standard_car" route="S2_N2" depart="733.0" departLane="random" departSpeed="10" />
    <vehicle id="S2_N2_181" type="standard_car" route="S2_N2" depart="734.0" departLane="random" departSpeed="10" />
    <vehicle id="W_N1_182" type="standard_car" route="W_N1" depart="735.0" departLane="random" departSpeed="10" />
    <vehicle id="S1_N1_183" type="standard_car" route="S1_N1" depart="741.0" departLane="random" departSpeed="10" />
    <vehicle id="N1_S1_184" type="standard_car" route="N1_S1" depart="744.0" departLane="random" departSpeed="10" />
    <vehicle id="W_E_185" type="standard_car" route="W_E" depart="747.0" departLane="random" departSpeed="10" />
    <vehicle id="E_N3_186" type="standard_car" route="E_N3" depart="751.0" departLane="random" departSpeed="10" />
    <vehicle id="E_S3_187" type="standard_car" route="E_S3" depart="751.0" departLane="random" departSpeed="10" />
    <vehicle id="N1_S1_188" type="standard_car" route="N1_S1" depart="754.0" departLane="random" departSpeed="10" />
    <vehicle id="N2_S2_189" type="standard_car" route="N2_S2" depart="755.0" departLane="random" departSpeed="10" />
    <vehicle id="W_N1_190" type="standard_car" route="W_N1" depart="755.0" departLane="random" departSpeed="10" />
    <vehicle id="S1_E_191" type="standard_car" route="S1_E" depart="761.0" departLane="random" departSpeed="10" />
    <vehicle id="W_E_192" type="standard_car" route="W_E" depart="761.0" departLane="random" departSpeed="10" />
    <vehicle id="S1_N1_193" type="standard_car" route="S1_N1" depart="762.0" departLane="random" departSpeed="10" />
    <vehicle id="S2_N2_194" type="standard_car" route="S2_N2" depart="763.0" departLane="random" departSpeed="10" />
    <vehicle id="W_E_195" type="standard_car" route="W_E" depart="767.0" departLane="random" departSpeed="10" />
    <vehicle id="S3_N3_196" type="standard_car" route="S3_N3" depart="772.0" departLane="random" departSpeed="10" />
    <vehicle id="N2_S2_197" type="standard_car" route="N2_S2" depart="782.0" departLane="random" departSpeed="10" />
    <vehicle id="N2_S2_198" type="standard_car" route="N2_S2" depart="782.0" departLane="random" departSpeed="10" />
    <vehicle id="E_S3_199" type="standard_car" route="E_S3" depart="787.0" departLane="random" departSpeed="10" />
    <vehicle id="N3_S3_200" type="standard_car" route="N3_S3" depart="788.0" departLane="random" departSpeed="10" />
    <vehicle id="N2_S2_201" type="standard_car" route="N2_S2" depart="789.0" departLane="random" departSpeed="10" />
    <vehicle id="S1_E_202" type="standard_car" route="S1_E" depart="789.0" departLane="random" departSpeed="10" />
    <vehicle id="W_S1_203" type="standard_car" route="W_S1" depart="798.0" departLane="random" departSpeed="10" />
    <vehicle id="N2_S2_204" type="standard_car" route="N2_S2" depart="800.0" departLane="random" departSpeed="10" />
    <vehicle id="E_N3_205" type="standard_car" route="E_N3" depart="802.0" departLane="random" departSpeed="10" />
    <vehicle id="N3_S3_206" type="standard_car" route="N3_S3" depart="803.0" departLane="random" departSpeed="10" />
    <vehicle id="N2_S2_207" type="standard_car" route="N2_S2" depart="803.0" departLane="random" departSpeed="10" />
    <vehicle id="N3_S3_208" type="standard_car" route="N3_S3" depart="810.0" departLane="random" departSpeed="10" />
    <vehicle id="W_E_209" type="standard_car" route="W_E" depart="814.0" departLane="random" departSpeed="10" />
    <vehicle id="N2_S2_210" type="standard_car" route="N2_S2" depart="815.0" departLane="random" departSpeed="10" />
    <vehicle id="W_E_211" type="standard_car" route="W_E" depart="815.0" departLane="random" departSpeed="10" />
    <vehicle id="S1_N1_212" type="standard_car" route="S1_N1" depart="818.0" departLane="random" departSpeed="10" />
    <vehicle id="S3_N3_213" type="standard_car" route="S3_N3" depart="821.0" departLane="random" departSpeed="10" />
    <vehicle id="S1_N1_214" type="standard_car" route="S1_N1" depart="822.0" departLane="random" departSpeed="10" />
    <vehicle id="N1_S1_215" type="standard_car" route="N1_S1" depart="827.0" departLane="random" departSpeed="10" />
    <vehicle id="N1_E_216" type="standard_car" route="N1_E" depart="830.0" departLane="random" departSpeed="10" />
    <vehicle id="N3_S3_217" type="standard_car" route="N3_S3" depart="830.0" departLane="random" departSpeed="10" />
    <vehicle id="S1_N1_218" type="standard_car" route="S1_N1" depart="833.0" departLane="random" departSpeed="10" />
    <vehicle id="S3_W_219" type="standard_car" route="S3_W" depart="833.0" departLane="random" departSpeed="10" />
    <vehicle id="E_S3_220" type="standard_car" route="E_S3" depart="836.0" departLane="random" departSpeed="10" />
    <vehicle id="N2_S2_221" type="standard_car" route="N2_S2" depart="836.0" departLane="random" departSpeed="10" />
    <vehicle id="W_N1_222" type="standard_car" route="W_N1" depart="836.0" departLane="random" departSpeed="10" />
    <vehicle id="S1_N1_223" type="standard_car" route="S1_N1" depart="838.0" departLane="random" departSpeed="10" />
    <vehicle id="N1_E_224" type="standard_car" route="N1_E" depart="840.0" departLane="random" departSpeed="10" />
    <vehicle id="N1_S1_225" type="standard_car" route="N1_S1" depart="843.0" departLane="random" departSpeed="10" />
    <vehicle id="N3_S3_226" type="standard_car" route="N3_S3" depart="844.0" departLane="random" departSpeed="10" />
    <vehicle id="S3_N3_227" type="standard_car" route="S3_N3" depart="845.0" departLane="random" departSpeed="10" />
    <vehicle id="S1_N1_228" type="standard_car" route="S1_N1" depart="846.0" departLane="random" departSpeed="10" />
    <vehicle id="N3_W_229" type="standard_car" route="N3_W" depart="846.0" departLane="random" departSpeed="10" />
    <vehicle id="N3_S3_230" type="standard_car" route="N3_S3" depart="857.0" departLane="random" departSpeed="10" />
    <vehicle id="W_S1_231" type="standard_car" route="W_S1" depart="858.0" departLane="random" departSpeed="10" />
    <vehicle id="W_E_232" type="standard_car" route="W_E" depart="865.0" departLane="random" departSpeed="10" />
    <vehicle id="E_S3_233" type="standard_car" route="E_S3" depart="867.0" departLane="random" departSpeed="10" />
    <vehicle id="N3_S3_234" type="standard_car" route="N3_S3" depart="868.0" departLane="random" departSpeed="10" />
    <vehicle id="N1_S1_235" type="standard_car" route="N1_S1" depart="871.0" departLane="random" departSpeed="10" />
    <vehicle id="S2_N2_236" type="standard_car" route="S2_N2" depart="875.0" departLane="random" departSpeed="10" />
    <vehicle id="N2_S2_237" type="standard_car" route="N2_S2" depart="878.0" departLane="random" departSpeed="10" />
    <vehicle id="W_E_238" type="standard_car" route="W_E" depart="879.0" departLane="random" departSpeed="10" />
    <vehicle id="S2_N2_239" type="standard_car" route="S2_N2" depart="881.0" departLane="random" departSpeed="10" />
    <vehicle id="N1_S1_240" type="standard_car" route="N1_S1" depart="885.0" departLane="random" departSpeed="10" />
    <vehicle id="S2_N2_241" type="standard_car" route="S2_N2" depart="887.0" departLane="random" departSpeed="10" />
    <vehicle id="S1_N1_242" type="standard_car" route="S1_N1" depart="890.0" departLane="random" departSpeed="10" />
    <vehicle id="N1_S1_243" type="standard_car" route="N1_S1" depart="890.0" departLane="random" departSpeed="10" />
    <vehicle id="N2_S2_244" type="standard_car" route="N2_S2" depart="894.0" departLane="random" departSpeed="10" />
    <vehicle id="S1_E_245" type="standard_car" route="S1_E" depart="897.0" departLane="random" departSpeed="10" />
    <vehicle id="E_W_246" type="standard_car" route="E_W" depart="898.0" departLane="random" departSpeed="10" />
    <vehicle id="E_W_247" type="standard_car" route="E_W" depart="902.0" departLane="random" departSpeed="10" />
    <vehicle id="E_W_248" type="standard_car" route="E_W" depart="905.0" departLane="random" departSpeed="10" />
    <vehicle id="S1_N1_249" type="standard_car" route="S1_N1" depart="906.0" departLane="random" departSpeed="10" />
    <vehicle id="S1_N1_250" type="standard_car" route="S1_N1" depart="907.0" departLane="random" departSpeed="10" />