<?xml version="1.0" encoding="UTF-8"?>
<nodes>
    <node id="TL1" x="0.0" y="0.0" type="traffic_light"/>
    <node id="TL2" x="750.0" y="0.0" type="traffic_light"/>
    <node id="TL3" x="1500.0" y="0.0" type="traffic_light"/>
    <node id="W" x="-750.0" y="0.0" type="dead_end"/>
    <node id="E" x="2250.0" y="0.0" type="dead_end"/>
    <node id="N1" x="0.0" y="750.0" type="dead_end"/>
    <node id="S1" x="0.0" y="-750.0" type="dead_end"/>
    <node id="N2" x="750.0" y="750.0" type="dead_end"/>
    <node id="S2" x="750.0" y="-750.0" type="dead_end"/>
    <node id="N3" x="1500.0" y="750.0" type="dead_end"/>
    <node id="S3" x="1500.0" y="-750.0" type="dead_end"/>
</nodes>
